** Simulating Heat Transfer
*Heading
 Job simulates heat conduction through the block.
** Job name: HeatTransfer Model name: Heat Transfer
** Generated by: Abaqus/CAE Student Edition 2021
*Preprint, echo=NO, model=NO, history=NO, contact=NO
**
** PARTS
**
*Part, name=Block
*Node
      1,           1.,  0.400000006,           3.
      2,           1., -0.600000024,           3.
      3,           1., -0.600000024,           0.
      4,           1.,  0.400000006,           0.
      5,           0., -0.600000024,           3.
      6,           0., -0.600000024,           0.
      7,           0.,  0.400000006,           0.
      8,           0.,  0.400000006,           3.
      9,           1.,  0.400000006,           6.
     10,           1., -0.600000024,           6.
     11,           0.,  0.400000006,           6.
     12,           0., -0.600000024,           6.
     13,           1., 0.0666666701,           3.
     14,           1., -0.266666681,           3.
     15,           1., -0.600000024,   2.70000005
     16,           1., -0.600000024,    2.4000001
     17,           1., -0.600000024,    2.0999999
     18,           1., -0.600000024,   1.79999995
     19,           1., -0.600000024,          1.5
     20,           1., -0.600000024,   1.20000005
** ... 316 like lines cut
*Element, type=DC3D8
 1,  60, 181, 265, 145,   1,  13, 109,  34
 2, 181, 182, 266, 265,  13,  14, 110, 109
 3, 182,  63, 163, 266,  14,   2,  15, 110
 4, 145, 265, 267, 146,  34, 109, 111,  33
 5, 265, 266, 268, 267, 109, 110, 112, 111
 6, 266, 163, 164, 268, 110,  15,  16, 112
 7, 146, 267, 269, 147,  33, 111, 113,  32
 8, 267, 268, 270, 269, 111, 112, 114, 113
 9, 268, 164, 165, 270, 112,  16,  17, 114
10, 147, 269, 271, 148,  32, 113, 115,  31
11, 269, 270, 272, 271, 113, 114, 116, 115
12, 270, 165, 166, 272, 114,  17,  18, 116
13, 148, 271, 273, 149,  31, 115, 117,  30
14, 271, 272, 274, 273, 115, 116, 118, 117
15, 272, 166, 167, 274, 116,  18,  19, 118
16, 149, 273, 275, 150,  30, 117, 119,  29
17, 273, 274, 276, 275, 117, 118, 120, 119
18, 274, 167, 168, 276, 118,  19,  20, 120
19, 150, 275, 277, 151,  29, 119, 121,  28
20, 275, 276, 278, 277, 119, 120, 122, 121
** ... 160 like lines cut
*Nset, nset=_PickedSet2, internal, generate
   1,  336,    1
*Elset, elset=_PickedSet2, internal, generate
   1,  180,    1
** Section: Block Section
*Solid Section, elset=_PickedSet2, material=Copper
,
*End Part
**  
**
** ASSEMBLY
**
*Assembly, name=Assembly
**  
*Instance, name=Block-1, part=Block
*End Instance
**  
*Nset, nset=_PickedSet7, internal, instance=Block-1
   3,   4,   6,   7,  24,  25,  46,  47,  57,  58,  61,  62, 185, 186, 187, 188
*Elset, elset=_PickedSet7, internal, instance=Block-1
 28, 29, 30, 58, 59, 60, 88, 89, 90
*Nset, nset=_PickedSet8, internal, instance=Block-1
   9,  10,  11,  12,  74,  75,  94,  95, 105, 106, 107, 108, 261, 262, 263, 264
*Elset, elset=_PickedSet8, internal, instance=Block-1
 118, 119, 120, 148, 149, 150, 178, 179, 180
*Elset, elset=__PickedSurf9_S6, internal, instance=Block-1, generate
  1,  88,   3
*Surface, type=ELEMENT, name=_PickedSurf9, internal
__PickedSurf9_S6, S6
*Elset, elset=__PickedSurf10_S4, internal, instance=Block-1, generate
  93,  180,    3
*Surface, type=ELEMENT, name=_PickedSurf10, internal
__PickedSurf10_S4, S4
*Elset, elset=__PickedSurf11_S1, internal, instance=Block-1, generate
 151,  180,    1
*Surface, type=ELEMENT, name=_PickedSurf11, internal
__PickedSurf11_S1, S1
*End Assembly
** 
** MATERIALS
** 
*Material, name=Copper
*Conductivity
401.,
** 
** PHYSICAL CONSTANTS
** 
*Physical Constants, absolute zero=-273.15, stefan boltzmann=5.67e-08
** ----------------------------------------------------------------
** 
** STEP: Heating Step
** 
*Step, name="Heating Step", nlgeom=NO
Apply heat in this step.
*Heat Transfer, steady state, deltmx=0.
1., 1., 1e-05, 1., 
** 
** BOUNDARY CONDITIONS
** 
** Name: Constant Temp Surf 2 Type: Temperature
*Boundary
_PickedSet8, 11, 11, 350.
** Name: Constant Temperature Surface 1 Type: Temperature
*Boundary
_PickedSet7, 11, 11, 400.
** 
** LOADS
** 
** Name: Heat Flux   Type: Surface heat flux
*Dsflux
_PickedSurf9, S, 5000.
** 
** INTERACTIONS
** 
** Interaction: Convection Reaction
*Sfilm
_PickedSurf10, F, 200., 13.
** Interaction: Radiation
*Sradiate
_PickedSurf11, R, 320., 0.78
** 
** OUTPUT REQUESTS
** 
*Restart, write, frequency=0
** 
** FIELD OUTPUT: F-Output-1
** 
*Output, field, variable=PRESELECT
*Output, history, frequency=0
*End Step
