*Heading
 Simulate Heat Away
** Job name: Job-1 Model name: Model-1
** Generated by: Abaqus/CAE Student Edition 2021
*Preprint, echo=NO, model=NO, history=NO, contact=NO
**
** PARTS
**
*Part, name=Room
*Node
      1,           0.,           0.,           6.
      2,           0.,  0.548640013,           6.
      3,           0.,   1.09728003,           6.
      4,           0.,   1.64592004,           6.
      5,           0.,   2.19456005,           6.
      6,           0.,   2.74320006,           6.
      7,           0.,           0.,    5.4000001
      8,           0.,  0.548640013,    5.4000001
      9,           0.,   1.09728003,    5.4000001
     10,           0.,   1.64592004,    5.4000001
     11,           0.,   2.19456005,    5.4000001
     12,           0.,   2.74320006,    5.4000001
     13,           0.,           0.,   4.80000019
     14,           0.,  0.548640013,   4.80000019
     15,           0.,   1.09728003,   4.80000019
     16,           0.,   1.64592004,   4.80000019
     17,           0.,   2.19456005,   4.80000019
     18,           0.,   2.74320006,   4.80000019
     19,           0.,           0.,   4.19999981
     20,           0.,  0.548640013,   4.19999981
** ... 574 like lines cut
*Element, type=DC3D8
  1,  67,  68,  74,  73,   1,   2,   8,   7
  2,  68,  69,  75,  74,   2,   3,   9,   8
  3,  69,  70,  76,  75,   3,   4,  10,   9
  4,  70,  71,  77,  76,   4,   5,  11,  10
  5,  71,  72,  78,  77,   5,   6,  12,  11
  6,  73,  74,  80,  79,   7,   8,  14,  13
  7,  74,  75,  81,  80,   8,   9,  15,  14
  8,  75,  76,  82,  81,   9,  10,  16,  15
  9,  76,  77,  83,  82,  10,  11,  17,  16
 10,  77,  78,  84,  83,  11,  12,  18,  17
 11,  79,  80,  86,  85,  13,  14,  20,  19
 12,  80,  81,  87,  86,  14,  15,  21,  20
 13,  81,  82,  88,  87,  15,  16,  22,  21
 14,  82,  83,  89,  88,  16,  17,  23,  22
 15,  83,  84,  90,  89,  17,  18,  24,  23
 16,  85,  86,  92,  91,  19,  20,  26,  25
 17,  86,  87,  93,  92,  20,  21,  27,  26
 18,  87,  88,  94,  93,  21,  22,  28,  27
 19,  88,  89,  95,  94,  22,  23,  29,  28
 20,  89,  90,  96,  95,  23,  24,  30,  29
** ... 380 like lines cut
*Nset, nset="Room Air", generate
   1,  594,    1
*Elset, elset="Room Air", generate
   1,  400,    1
** Section: Room Air
*Solid Section, elset="Room Air", material=Air
,
*End Part
**  
**
** ASSEMBLY
**
*Assembly, name=Assembly
**  
*Instance, name=Room-1, part=Room
*End Instance
**  
*Nset, nset="Room Air", instance=Room-1, generate
   1,  594,    1
*Elset, elset="Room Air", instance=Room-1, generate
   1,  400,    1
*Elset, elset="_All Faces of Air_S1", internal, instance=Room-1, generate
 351,  400,    1
*Elset, elset="_All Faces of Air_S6", internal, instance=Room-1, generate
   1,  396,    5
*Elset, elset="_All Faces of Air_S2", internal, instance=Room-1, generate
  1,  50,   1
*Elset, elset="_All Faces of Air_S4", internal, instance=Room-1, generate
   5,  400,    5
*Elset, elset="_All Faces of Air_S3", internal, instance=Room-1
   1,   2,   3,   4,   5,  51,  52,  53,  54,  55, 101, 102, 103, 104, 105, 151
 152, 153, 154, 155, 201, 202, 203, 204, 205, 251, 252, 253, 254, 255, 301, 302
 303, 304, 305, 351, 352, 353, 354, 355
*Elset, elset="_All Faces of Air_S5", internal, instance=Room-1
  46,  47,  48,  49,  50,  96,  97,  98,  99, 100, 146, 147, 148, 149, 150, 196
 197, 198, 199, 200, 246, 247, 248, 249, 250, 296, 297, 298, 299, 300, 346, 347
 348, 349, 350, 396, 397, 398, 399, 400
*Surface, type=ELEMENT, name="All Faces of Air"
"_All Faces of Air_S1", S1
"_All Faces of Air_S6", S6
"_All Faces of Air_S2", S2
"_All Faces of Air_S4", S4
"_All Faces of Air_S3", S3
"_All Faces of Air_S5", S5
*Elset, elset=_Surf-2_S4, internal, instance=Room-1, generate
   5,  400,    5
*Surface, type=ELEMENT, name=Surf-2
_Surf-2_S4, S4
*End Assembly
** 
** MATERIALS
** 
** Air
** 
*Material, name=Air
*Conductivity
 0.024,
*Density
 1.225,
*Specific Heat
1.,
** 
** PHYSICAL CONSTANTS
** 
*Physical Constants, absolute zero=-273.15, stefan boltzmann=5.67e-08, universal gas=8.31434
** ----------------------------------------------------------------
** 
** STEP: Heating Step
** 
*Step, name="Heating Step", nlgeom=NO
Initial Condition Step
*Heat Transfer, steady state, deltmx=0.
1., 1., 1e-05, 1., 
** 
** BOUNDARY CONDITIONS
** 
** Name: BC-1 Type: Temperature
*Boundary
"Room Air", 11, 11, 30.
** 
** OUTPUT REQUESTS
** 
*Restart, write, frequency=0
** 
** FIELD OUTPUT: F-Output-1
** 
*Output, field, variable=PRESELECT
*Output, history, frequency=0
*End Step
** ----------------------------------------------------------------
** 
** STEP: Cooldown
** 
*Step, name=Cooldown, nlgeom=NO, inc=10000
Test how heat diffuses from our assembly
*Heat Transfer, end=PERIOD, deltmx=1.
1., 1., 1e-05, 1., 
** 
** INTERACTIONS
** 
** Interaction: Radiate Heat Away
*Sradiate
Surf-2, R, 0., 1.
** 
** OUTPUT REQUESTS
** 
*Restart, write, frequency=0
** 
** FIELD OUTPUT: F-Output-1
** 
*Output, field, variable=PRESELECT
*Output, history, frequency=0
*End Step
